  Page 1                                            9/26/2025 2:43:39 PM
  **********************************************************************
  *                             E P A N E T                            *
  *                     Hydraulic and Water Quality                    *
  *                     Analysis for Pipe Networks                     *
  *                           Version 2.2                              *
  **********************************************************************
  
  Input File: net2_baseline_2024_configured.net
  
  EPANET TPM802A
  This is an adjusted system based on the Cherry Hill/Brushy Plains network by Rossman et al. (1994).
  
  Link - Node Table:
  ----------------------------------------------------------------------
  Link           Start          End                Length  Diameter
  ID             Node           Node                    m        mm
  ----------------------------------------------------------------------
  2              2              5                  243.84     304.8
  3              2              3                  396.24     203.2
  4              3              4                  365.76     203.2
  5              4              5                   304.8     153.4
  6              5              6                  365.76     304.8
  7              6              7                  822.96     203.2
  8              7              8                  365.76     304.8
  9              7              9                  121.92     304.8
  10             8              10                  304.8     203.2
  11             9              11                 213.36     304.8
  12             11             12                 579.12     304.8
  13             12             13                 182.88     304.8
  14             13             14                 121.92     304.8
  15             14             15                  91.44     304.8
  16             13             16                  457.2     152.4
  17             15             17                  457.2     152.4
  18             16             17                 182.88     203.2
  19             17             18                 213.36     304.8
  20             18             32                 106.68     304.8
  21             16             19                 426.72     203.2
  22             14             20                 335.28     304.8
  23             20             21                 396.24     203.2
  24             21             22                 396.24     203.2
  25             20             22                 396.24     203.2
  26             24             23                 182.88     304.8
  27             15             24                   76.2     304.8
  28             23             25                  91.44     304.8
  29             25             26                  60.96     304.8
  30             25             31                 182.88     304.8
  31             31             27                 121.92     203.2
  32             27             29                 121.92     203.2
  34             29             28                 213.36     203.2
  35             22             33                  304.8     203.2
  36             33             34                 121.92     203.2
  37             32             19                  152.4     203.2
  38             29             35                  152.4     203.2


  Page 2                                                  EPANET TPM802A
  Link - Node Table: (continued)
  ----------------------------------------------------------------------
  Link           Start          End                Length  Diameter
  ID             Node           Node                    m        mm
  ----------------------------------------------------------------------
  39             35             30                  304.8     203.2
  40             28             35                 213.36     203.2
  41             28             36                  91.44     203.2
  1              1              2                    #N/A      #N/A Pump
  
  Energy Usage:
  ----------------------------------------------------------------------
                    Usage   Avg.     Kw-hr      Avg.      Peak      Cost
  Pump             Factor Effic.     /m3        Kw        Kw      /day
  ----------------------------------------------------------------------
  1                 99.99  75.00     20.58 29581440.00 3548395520.00      0.00
  ----------------------------------------------------------------------
                                                Demand Charge:      0.00
                                                Total Cost:         0.00
  
  Node Results at 0:00 Hrs:
  ----------------------------------------------------------------------
  Node                Demand      Head  Pressure   Quality
  ID                     LPS         m         m      mg/L
  ----------------------------------------------------------------------
  2                     8.16     60.23     29.73      1.00
  3                     8.16     59.91     41.61      1.00
  4                     8.16     59.89     41.59      1.00
  5                     8.16     60.32     29.82      1.00
  6                     8.16     60.69     22.59      1.00
  7                     8.16     69.83     21.03      1.00
  8                     8.16     69.73     36.23      1.00
  9                     8.16     70.28     15.38      1.00
  10                    8.16     69.56     29.96      1.00
  11                    8.16     71.26     14.86      1.00
  12                    8.16     74.48     10.48      1.00
  13                    8.16     75.70     11.70      1.00
  14                    8.16     76.99     15.99      1.00
  15                    8.16     78.84     20.94      1.00
  16                    8.16     71.47     25.77      1.00
  17                    8.16     71.44     16.54      1.00
  18                    8.16     71.37     40.87      1.00
  19                    8.16     71.34     25.64      1.00
  20                    8.16     76.47     24.67      1.00
  21                    8.16     75.75     30.05      1.00
  22                    8.16     75.57     14.57      1.00
  23                    8.16     86.55     16.45      1.00
  24                    8.16     80.99     23.09      1.00
  25                    8.16     89.53     19.43      1.00
  27                    8.16     87.78     48.18      1.00
  28                    8.16     86.65     53.15      1.00
  29                    8.16     86.89     53.39      1.00


  Page 3                                                  EPANET TPM802A
  Node Results at 0:00 Hrs: (continued)
  ----------------------------------------------------------------------
  Node                Demand      Head  Pressure   Quality
  ID                     LPS         m         m      mg/L
  ----------------------------------------------------------------------
  30                    8.16     86.52     46.92      1.00
  31                    8.16     89.14     31.24      1.00
  32                    8.16     71.35     37.85      1.00
  33                    8.16     74.95     20.05      1.00
  34                    8.16     74.88     16.98      1.00
  35                    0.00     86.69     53.19      1.00
  36                    8.16     86.60     53.10      1.00
  1                     0.00      3.16      0.00      0.00 Reservoir
  26                 -269.41     92.63     21.00      1.00 Tank
  
  Link Results at 0:00 Hrs:
  ----------------------------------------------------------------------
  Link                  Flow  VelocityUnit Headloss    Status
  ID                     LPS       m/s      m/km
  ----------------------------------------------------------------------
  2                   -18.16      0.25      0.34      Open
  3                    10.00      0.31      0.82      Open
  4                     1.83      0.06      0.04      Open
  5                    -6.33      0.34      1.38      Open
  6                   -32.66      0.45      1.02      Open
  7                   -40.82      1.26     11.11      Open
  8                    16.33      0.22      0.28      Open
  9                   -65.31      0.90      3.68      Open
  10                    8.16      0.25      0.56      Open
  11                  -73.48      1.01      4.58      Open
  12                  -81.64      1.12      5.57      Open
  13                  -89.80      1.23      6.64      Open
  14                 -115.32      1.58     10.55      Open
  15                 -164.31      2.25     20.33      Open
  16                   17.35      0.95      9.26      Open
  17                   23.47      1.29     16.18      Open
  18                    3.51      0.11      0.12      Open
  19                   18.81      0.26      0.37      Open
  20                   10.65      0.15      0.13      Open
  21                    5.68      0.18      0.29      Open
  22                   40.82      0.56      1.54      Open
  23                   15.36      0.47      1.82      Open
  24                    7.20      0.22      0.45      Open
  25                   17.29      0.53      2.27      Open
  26                 -204.10      2.80     30.38      Open
  27                 -195.94      2.69     28.17      Open
  28                 -212.26      2.91     32.67      Open
  29                 -269.41      3.69     50.80      Open
  30                   48.98      0.67      2.16      Open
  31                   40.82      1.26     11.11      Open
  32                   32.66      1.01      7.35      Open
  34                   11.76      0.36      1.11      Open


  Page 4                                                  EPANET TPM802A
  Link Results at 0:00 Hrs: (continued)
  ----------------------------------------------------------------------
  Link                  Flow  VelocityUnit Headloss    Status
  ID                     LPS       m/s      m/km
  ----------------------------------------------------------------------
  35                   16.33      0.50      2.04      Open
  36                    8.16      0.25      0.56      Open
  37                    2.48      0.08      0.06      Open
  38                   12.73      0.39      1.28      Open
  39                    8.16      0.25      0.56      Open
  40                   -4.57      0.14      0.19      Open
  41                    8.16      0.25      0.56      Open
  1                     0.00      0.00      0.00    Closed Pump
  
  Node Results at 1:00 Hrs:
  ----------------------------------------------------------------------
  Node                Demand      Head  Pressure   Quality
  ID                     LPS         m         m      mg/L
  ----------------------------------------------------------------------
  2                     6.12    309.04    278.54      0.00
  3                     6.12    306.59    288.29      0.00
  4                     6.12    305.11    286.81      0.00
  5                     6.12    302.32    271.82      0.00
  6                     6.12    291.11    253.01      0.00
  7                     6.12    119.25     70.45      0.00
  8                     6.12    119.19     85.69      0.39
  9                     6.12    116.30     61.40      0.00
  10                    6.12    119.09     79.49      1.00
  11                    6.12    111.45     55.05      0.00
  12                    6.12     99.14     35.14      0.01
  13                    6.12     95.51     31.51      0.03
  14                    6.12     93.72     32.72      0.04
  15                    6.12     92.96     35.06      0.05
  16                    6.12     90.81     45.11      0.07
  17                    6.12     90.74     35.84      0.20
  18                    6.12     90.70     60.20      0.72
  19                    6.12     90.69     44.99      1.00
  20                    6.12     93.42     41.62      0.09
  21                    6.12     92.99     47.29      0.69
  22                    6.12     92.89     31.89      0.78
  23                    6.12     91.63     21.53      0.18
  24                    6.12     92.53     34.63      0.06
  25                    6.12     91.24     21.14      0.62
  27                    6.12     90.21     50.61      0.80
  28                    6.12     89.55     56.05      0.96
  29                    6.12     89.69     56.19      0.83
  30                    6.12     89.47     49.87      1.00
  31                    6.12     91.01     33.11      0.69
  32                    6.12     90.70     57.20      1.00
  33                    6.12     92.52     37.62      0.97
  34                    6.12     92.48     34.58      1.00
  35                    0.00     89.57     56.07      0.95


  Page 5                                                  EPANET TPM802A
  Node Results at 1:00 Hrs: (continued)
  ----------------------------------------------------------------------
  Node                Demand      Head  Pressure   Quality
  ID                     LPS         m         m      mg/L
  ----------------------------------------------------------------------
  36                    6.12     89.52     56.02      1.00
  1                  -229.58      3.16      0.00      0.00 Reservoir
  26                   27.52     91.20     19.57      1.00 Tank
  
  Link Results at 1:00 Hrs:
  ----------------------------------------------------------------------
  Link                  Flow  VelocityUnit Headloss    Status
  ID                     LPS       m/s      m/km
  ----------------------------------------------------------------------
  2                   193.67      2.65     27.57      Open
  3                    29.78      0.92      6.20      Open
  4                    23.66      0.73      4.05      Open
  5                    17.54      0.95      9.14      Open
  6                   205.08      2.81     30.65      Open
  7                   198.96      6.14    208.83      Open
  8                    12.25      0.17      0.17      Open
  9                   180.59      2.47     24.22      Open
  10                    6.12      0.19      0.33      Open
  11                  174.47      2.39     22.72      Open
  12                  168.35      2.31     21.26      Open
  13                  162.22      2.22     19.85      Open
  14                  137.74      1.89     14.67      Open
  15                  101.01      1.38      8.26      Open
  16                   18.35      1.01     10.27      Open
  17                   12.26      0.67      4.86      Open
  18                    6.71      0.21      0.39      Open
  19                   12.84      0.18      0.18      Open
  20                    6.72      0.09      0.05      Open
  21                    5.53      0.17      0.27      Open
  22                   30.62      0.42      0.91      Open
  23                   11.52      0.36      1.07      Open
  24                    5.40      0.17      0.26      Open
  25                   12.97      0.40      1.33      Open
  26                   76.50      1.05      4.93      Open
  27                   82.62      1.13      5.69      Open
  28                   70.38      0.96      4.23      Open
  29                   27.52      0.38      0.74      Open
  30                   36.74      0.50      1.27      Open
  31                   30.62      0.94      6.52      Open
  32                   24.49      0.76      4.31      Open
  34                    8.82      0.27      0.65      Open
  35                   12.25      0.38      1.20      Open
  36                    6.12      0.19      0.33      Open
  37                    0.60      0.02      0.00      Open
  38                    9.55      0.29      0.75      Open
  39                    6.12      0.19      0.33      Open
  40                   -3.42      0.11      0.11      Open


  Page 6                                                  EPANET TPM802A
  Link Results at 1:00 Hrs: (continued)
  ----------------------------------------------------------------------
  Link                  Flow  VelocityUnit Headloss    Status
  ID                     LPS       m/s      m/km
  ----------------------------------------------------------------------
  41                    6.12      0.19      0.33      Open
  1                   229.58      0.00   -305.88      Open Pump
  
  Node Results at 2:00 Hrs:
  ----------------------------------------------------------------------
  Node                Demand      Head  Pressure   Quality
  ID                     LPS         m         m      mg/L
  ----------------------------------------------------------------------
  2                     5.10    310.41    279.91      0.00
  3                     5.10    308.20    289.90      0.00
  4                     5.10    306.79    288.49      0.00
  5                     5.10    303.89    273.39      0.00
  6                     5.10    292.85    254.75      0.00
  7                     5.10    122.08     73.28      0.00
  8                     5.10    122.04     88.54      0.00
  9                     5.10    119.06     64.16      0.00
  10                    5.10    121.97     82.37      0.01
  11                    5.10    114.04     57.64      0.00
  12                    5.10    101.12     37.12      0.00
  13                    5.10     97.26     33.26      0.00
  14                    5.10     95.27     34.27      0.00
  15                    5.10     94.31     36.41      0.00
  16                    5.10     93.23     47.53      0.00
  17                    5.10     93.16     38.26      0.00
  18                    5.10     93.13     62.63      0.00
  19                    5.10     93.13     47.43      0.10
  20                    5.10     95.06     43.26      0.00
  21                    5.10     94.76     49.06      0.00
  22                    5.10     94.68     33.68      0.04
  23                    5.10     92.30     22.20      0.00
  24                    5.10     93.68     35.78      0.00
  25                    5.10     91.68     21.58      0.00
  27                    5.10     90.94     51.34      0.00
  28                    5.10     90.47     56.97      0.05
  29                    5.10     90.57     57.07      0.00
  30                    5.10     90.41     50.81      0.03
  31                    5.10     91.51     33.61      0.00
  32                    5.10     93.13     59.63      0.02
  33                    5.10     94.42     39.52      0.16
  34                    5.10     94.39     36.49      0.27
  35                    0.00     90.49     56.99      0.00
  36                    5.10     90.45     56.95      0.16
  1                  -223.79      3.16      0.00      0.00 Reservoir
  26                   55.40     91.51     19.88      0.99 Tank
  


  Page 7                                                  EPANET TPM802A
  Link Results at 2:00 Hrs:
  ----------------------------------------------------------------------
  Link                  Flow  VelocityUnit Headloss    Status
  ID                     LPS       m/s      m/km
  ----------------------------------------------------------------------
  2                   190.55      2.61     26.75      Open
  3                    28.14      0.87      5.58      Open
  4                    23.03      0.71      3.85      Open
  5                    17.93      0.97      9.53      Open
  6                   203.38      2.79     30.18      Open
  7                   198.28      6.11    207.50      Open
  8                    10.21      0.14      0.12      Open
  9                   182.97      2.51     24.81      Open
  10                    5.10      0.16      0.24      Open
  11                  177.87      2.44     23.55      Open
  12                  172.76      2.37     22.31      Open
  13                  167.66      2.30     21.10      Open
  14                  145.66      2.00     16.26      Open
  15                  115.04      1.58     10.51      Open
  16                   16.90      0.93      8.81      Open
  17                    8.61      0.47      2.53      Open
  18                    6.70      0.21      0.39      Open
  19                   10.22      0.14      0.12      Open
  20                    5.11      0.07      0.03      Open
  21                    5.09      0.16      0.24      Open
  22                   25.51      0.35      0.65      Open
  23                    9.60      0.30      0.76      Open
  24                    4.50      0.14      0.19      Open
  25                   10.81      0.33      0.95      Open
  26                   96.22      1.32      7.55      Open
  27                  101.33      1.39      8.30      Open
  28                   91.12      1.25      6.82      Open
  29                   55.40      0.76      2.71      Open
  30                   30.62      0.42      0.91      Open
  31                   25.51      0.79      4.65      Open
  32                   20.41      0.63      3.08      Open
  34                    7.35      0.23      0.46      Open
  35                   10.21      0.31      0.85      Open
  36                    5.10      0.16      0.24      Open
  37                    0.01      0.00      0.00      Open
  38                    7.96      0.25      0.54      Open
  39                    5.10      0.16      0.24      Open
  40                   -2.85      0.09      0.08      Open
  41                    5.10      0.16      0.24      Open
  1                   223.79      0.00   -307.25      Open Pump
  


  Page 8                                                  EPANET TPM802A
  Node Results at 3:00 Hrs:
  ----------------------------------------------------------------------
  Node                Demand      Head  Pressure   Quality
  ID                     LPS         m         m      mg/L
  ----------------------------------------------------------------------
  2                     5.10    310.47    279.97      0.00
  3                     5.10    308.27    289.97      0.00
  4                     5.10    306.86    288.56      0.00
  5                     5.10    303.97    273.47      0.00
  6                     5.10    292.95    254.85      0.00
  7                     5.10    122.62     73.82      0.00
  8                     5.10    122.58     89.08      0.00
  9                     5.10    119.61     64.71      0.00
  10                    5.10    122.51     82.91      0.00
  11                    5.10    114.60     58.20      0.00
  12                    5.10    101.71     37.71      0.00
  13                    5.10     97.87     33.87      0.00
  14                    5.10     95.89     34.89      0.00
  15                    5.10     94.93     37.03      0.00
  16                    5.10     93.84     48.14      0.00
  17                    5.10     93.77     38.87      0.00
  18                    5.10     93.75     63.25      0.00
  19                    5.10     93.74     48.04      0.00
  20                    5.10     95.67     43.87      0.00
  21                    5.10     95.37     49.67      0.00
  22                    5.10     95.30     34.30      0.00
  23                    5.10     92.93     22.83      0.00
  24                    5.10     94.30     36.40      0.00
  25                    5.10     92.31     22.21      0.00
  27                    5.10     91.58     51.98      0.00
  28                    5.10     91.10     57.60      0.00
  29                    5.10     91.20     57.70      0.00
  30                    5.10     91.05     51.45      0.00
  31                    5.10     92.14     34.24      0.00
  32                    5.10     93.74     60.24      0.00
  33                    5.10     95.04     40.14      0.00
  34                    5.10     95.01     37.11      0.00
  35                    0.00     91.12     57.62      0.00
  36                    5.10     91.08     57.58      0.00
  1                  -223.52      3.16      0.00      0.00 Reservoir
  26                   55.13     92.15     20.52      0.95 Tank
  


  Page 9                                                  EPANET TPM802A
  Link Results at 3:00 Hrs:
  ----------------------------------------------------------------------
  Link                  Flow  VelocityUnit Headloss    Status
  ID                     LPS       m/s      m/km
  ----------------------------------------------------------------------
  2                   190.31      2.61     26.69      Open
  3                    28.11      0.87      5.57      Open
  4                    23.01      0.71      3.84      Open
  5                    17.90      0.97      9.50      Open
  6                   203.11      2.78     30.11      Open
  7                   198.00      6.11    206.97      Open
  8                    10.21      0.14      0.12      Open
  9                   182.70      2.50     24.74      Open
  10                    5.10      0.16      0.24      Open
  11                  177.59      2.43     23.48      Open
  12                  172.49      2.36     22.24      Open
  13                  167.39      2.29     21.04      Open
  14                  145.40      1.99     16.21      Open
  15                  114.79      1.57     10.46      Open
  16                   16.88      0.93      8.80      Open
  17                    8.63      0.47      2.54      Open
  18                    6.69      0.21      0.39      Open
  19                   10.22      0.14      0.12      Open
  20                    5.12      0.07      0.03      Open
  21                    5.09      0.16      0.23      Open
  22                   25.51      0.35      0.65      Open
  23                    9.60      0.30      0.76      Open
  24                    4.50      0.14      0.19      Open
  25                   10.81      0.33      0.95      Open
  26                   95.95      1.32      7.51      Open
  27                  101.06      1.38      8.26      Open
  28                   90.85      1.25      6.79      Open
  29                   55.13      0.76      2.69      Open
  30                   30.62      0.42      0.91      Open
  31                   25.51      0.79      4.65      Open
  32                   20.41      0.63      3.08      Open
  34                    7.35      0.23      0.46      Open
  35                   10.21      0.31      0.85      Open
  36                    5.10      0.16      0.24      Open
  37                    0.01      0.00      0.00      Open
  38                    7.96      0.25      0.54      Open
  39                    5.10      0.16      0.24      Open
  40                   -2.85      0.09      0.08      Open
  41                    5.10      0.16      0.24      Open
  1                   223.52      0.00   -307.31      Open Pump
  


  Page 10                                                 EPANET TPM802A
  Node Results at 4:00 Hrs:
  ----------------------------------------------------------------------
  Node                Demand      Head  Pressure   Quality
  ID                     LPS         m         m      mg/L
  ----------------------------------------------------------------------
  2                     6.12    309.21    278.71      0.00
  3                     6.12    306.76    288.46      0.00
  4                     6.12    305.29    286.99      0.00
  5                     6.12    302.52    272.02      0.00
  6                     6.12    291.38    253.28      0.00
  7                     6.12    120.60     71.80      0.00
  8                     6.12    120.54     87.04      0.00
  9                     6.12    117.67     62.77      0.00
  10                    6.12    120.44     80.84      0.00
  11                    6.12    112.86     56.46      0.00
  12                    6.12    100.64     36.64      0.00
  13                    6.12     97.03     33.03      0.00
  14                    6.12     95.26     34.26      0.00
  15                    6.12     94.52     36.62      0.00
  16                    6.12     92.35     46.65      0.00
  17                    6.12     92.28     37.38      0.00
  18                    6.12     92.24     61.74      0.00
  19                    6.12     92.24     46.54      0.00
  20                    6.12     94.96     43.16      0.00
  21                    6.12     94.53     48.83      0.00
  22                    6.12     94.43     33.43      0.00
  23                    6.12     93.20     23.10      0.00
  24                    6.12     94.09     36.19      0.00
  25                    6.12     92.82     22.72      0.00
  27                    6.12     91.79     52.19      0.00
  28                    6.12     91.13     57.63      0.00
  29                    6.12     91.27     57.77      0.00
  30                    6.12     91.05     51.45      0.00
  31                    6.12     92.59     34.69      0.00
  32                    6.12     92.24     58.74      0.00
  33                    6.12     94.07     39.17      0.00
  34                    6.12     94.03     36.13      0.00
  35                    0.00     91.15     57.65      0.00
  36                    6.12     91.10     57.60      0.00
  1                  -228.90      3.16      0.00      0.00 Reservoir
  26                   26.84     92.78     21.15      0.93 Tank
  


  Page 11                                                 EPANET TPM802A
  Link Results at 4:00 Hrs:
  ----------------------------------------------------------------------
  Link                  Flow  VelocityUnit Headloss    Status
  ID                     LPS       m/s      m/km
  ----------------------------------------------------------------------
  2                   193.06      2.65     27.41      Open
  3                    29.71      0.92      6.17      Open
  4                    23.59      0.73      4.02      Open
  5                    17.47      0.95      9.07      Open
  6                   204.41      2.80     30.46      Open
  7                   198.28      6.11    207.51      Open
  8                    12.25      0.17      0.17      Open
  9                   179.91      2.47     24.05      Open
  10                    6.12      0.19      0.33      Open
  11                  173.79      2.38     22.56      Open
  12                  167.67      2.30     21.11      Open
  13                  161.54      2.21     19.70      Open
  14                  137.10      1.88     14.54      Open
  15                  100.36      1.38      8.16      Open
  16                   18.33      1.00     10.24      Open
  17                   12.29      0.67      4.88      Open
  18                    6.69      0.21      0.39      Open
  19                   12.85      0.18      0.18      Open
  20                    6.73      0.09      0.05      Open
  21                    5.52      0.17      0.27      Open
  22                   30.62      0.42      0.91      Open
  23                   11.52      0.36      1.07      Open
  24                    5.40      0.17      0.26      Open
  25                   12.97      0.40      1.33      Open
  26                   75.82      1.04      4.85      Open
  27                   81.94      1.12      5.60      Open
  28                   69.70      0.96      4.15      Open
  29                   26.84      0.37      0.71      Open
  30                   36.74      0.50      1.27      Open
  31                   30.62      0.94      6.52      Open
  32                   24.49      0.76      4.31      Open
  34                    8.82      0.27      0.65      Open
  35                   12.25      0.38      1.20      Open
  36                    6.12      0.19      0.33      Open
  37                    0.61      0.02      0.00      Open
  38                    9.55      0.29      0.75      Open
  39                    6.12      0.19      0.33      Open
  40                   -3.42      0.11      0.11      Open
  41                    6.12      0.19      0.33      Open
  1                   228.90      0.00   -306.05      Open Pump
  


  Page 12                                                 EPANET TPM802A
  Node Results at 5:00 Hrs:
  ----------------------------------------------------------------------
  Node                Demand      Head  Pressure   Quality
  ID                     LPS         m         m      mg/L
  ----------------------------------------------------------------------
  2                    12.25    301.13    270.63      0.00
  3                    12.25    297.12    278.82      0.00
  4                    12.25    295.28    276.98      0.00
  5                    12.25    293.36    262.86      0.00
  6                    12.25    281.48    243.38      0.00
  7                    12.25    109.04     60.24      0.00
  8                    12.25    108.82     75.32      0.00
  9                    12.25    106.61     51.71      0.00
  10                   12.25    108.46     68.86      0.00
  11                   12.25    102.93     46.53      0.00
  12                   12.25     94.40     30.40      0.00
  13                   12.25     92.13     28.13      0.00
  14                   12.25     91.43     30.43      0.00
  15                   12.25     91.42     33.52      0.00
  16                   12.25     79.73     34.03      0.00
  17                   12.25     79.60     24.70      0.00
  18                   12.25     79.44     48.94      0.00
  19                   12.25     79.41     33.71      0.10
  20                   12.25     90.34     38.54      0.00
  21                   12.25     88.81     43.11      0.00
  22                   12.25     88.44     27.44      0.00
  23                   12.25     91.85     21.75      0.00
  24                   12.25     91.50     33.60      0.00
  25                   12.25     92.12     22.02      0.00
  27                   12.25     88.41     48.81      0.00
  28                   12.25     86.01     52.51      0.00
  29                   12.25     86.51     53.01      0.00
  30                   12.25     85.73     46.13      0.00
  31                   12.25     91.28     33.38      0.00
  32                   12.25     79.42     45.92      0.00
  33                   12.25     87.12     32.22      0.00
  34                   12.25     86.97     29.07      0.00
  35                    0.00     86.10     52.60      0.00
  36                   12.25     85.90     52.40      0.00
  1                  -260.56      3.16      0.00      0.00 Reservoir
  26                 -143.56     93.08     21.45      0.91 Tank
  


  Page 13                                                 EPANET TPM802A
  Link Results at 5:00 Hrs:
  ----------------------------------------------------------------------
  Link                  Flow  VelocityUnit Headloss    Status
  ID                     LPS       m/s      m/km
  ----------------------------------------------------------------------
  2                   209.48      2.87     31.88      Open
  3                    38.84      1.20     10.13      Open
  4                    26.59      0.82      5.02      Open
  5                    14.34      0.78      6.30      Open
  6                   211.57      2.90     32.47      Open
  7                   199.33      6.15    209.54      Open
  8                    24.49      0.34      0.60      Open
  9                   162.59      2.23     19.94      Open
  10                   12.25      0.38      1.20      Open
  11                  150.34      2.06     17.25      Open
  12                  138.10      1.89     14.74      Open
  13                  125.85      1.72     12.41      Open
  14                   82.60      1.13      5.69      Open
  15                    9.12      0.13      0.10      Open
  16                   31.01      1.70     27.12      Open
  17                   30.22      1.66     25.86      Open
  18                    9.22      0.28      0.71      Open
  19                   27.20      0.37      0.73      Open
  20                   14.95      0.20      0.24      Open
  21                    9.54      0.29      0.75      Open
  22                   61.23      0.84      3.27      Open
  23                   23.04      0.71      3.85      Open
  24                   10.80      0.33      0.95      Open
  25                   25.94      0.80      4.80      Open
  26                  -45.59      0.62      1.89      Open
  27                  -33.35      0.46      1.06      Open
  28                  -57.84      0.79      2.94      Open
  29                 -143.56      1.97     15.83      Open
  30                   73.48      1.01      4.58      Open
  31                   61.23      1.89     23.55      Open
  32                   48.98      1.51     15.58      Open
  34                   17.64      0.54      2.35      Open
  35                   24.49      0.76      4.31      Open
  36                   12.25      0.38      1.20      Open
  37                    2.71      0.08      0.07      Open
  38                   19.09      0.59      2.72      Open
  39                   12.25      0.38      1.20      Open
  40                   -6.85      0.21      0.41      Open
  41                   12.25      0.38      1.20      Open
  1                   260.56      0.00   -297.97      Open Pump
  


  Page 14                                                 EPANET TPM802A
  Node Results at 6:00 Hrs:
  ----------------------------------------------------------------------
  Node                Demand      Head  Pressure   Quality
  ID                     LPS         m         m      mg/L
  ----------------------------------------------------------------------
  2                    24.49    280.89    250.39      0.00
  3                    24.49    273.17    254.87      0.00
  4                    24.49    270.76    252.46      0.00
  5                    24.49    270.34    239.84      0.00
  6                    24.49    256.62    218.52      0.00
  7                    24.49     76.14     27.34      0.00
  8                    24.49     75.35     41.85      0.00
  9                    24.49     74.52     19.62      0.00
  10                   24.49     74.04     34.44      0.00
  11                   24.49     72.58     16.18      0.00
  12                   24.49     69.35      5.35      0.00
  13                   24.49     68.82      4.82      0.00
  14                   24.49     68.83      7.83      0.00
  15                   24.49     70.22     12.32      0.72
  16                   24.49     46.31      0.61      0.00
  17                    0.00     46.27     -8.63      0.55
  18                   24.49     45.80     15.30      0.55
  19                   13.56     45.73      0.03      0.01
  20                   24.49     65.80     14.00      0.00
  21                   24.49     61.72     16.02      0.00
  22                   19.18     61.06      0.06      0.00
  23                   24.49     79.79      9.69      0.91
  24                   24.49     72.65     14.75      0.91
  25                   24.49     84.09     13.99      0.91
  27                   24.49     70.70     31.10      0.91
  28                   24.49     62.03     28.53      0.91
  29                   24.49     63.84     30.34      0.91
  30                   24.49     61.03     21.43      0.91
  31                   24.49     81.06     23.16      0.91
  32                   24.49     45.73     12.23      0.55
  33                   24.49     58.10      3.20      0.00
  34                   13.45     57.93      0.03      0.00
  35                    0.00     62.35     28.85      0.91
  36                   24.49     61.64     28.14      0.91
  1                  -326.75      3.16      0.00      0.00 Reservoir
  26                 -429.72     91.44     19.81      0.91 Tank
  


  Page 15                                                 EPANET TPM802A
  Link Results at 6:00 Hrs:
  ----------------------------------------------------------------------
  Link                  Flow  VelocityUnit Headloss    Status
  ID                     LPS       m/s      m/km
  ----------------------------------------------------------------------
  2                   246.98      3.38     43.25      Open
  3                    55.27      1.70     19.48      Open
  4                    30.78      0.95      6.59      Open
  5                     6.29      0.34      1.37      Open
  6                   228.78      3.14     37.53      Open
  7                   204.28      6.30    219.30      Open
  8                    48.98      0.67      2.16      Open
  9                   130.81      1.79     13.33      Open
  10                   24.49      0.76      4.31      Open
  11                  106.32      1.46      9.08      Open
  12                   81.82      1.12      5.59      Open
  13                   57.33      0.79      2.89      Open
  14                   -9.95      0.14      0.11      Open
  15                 -140.54      1.93     15.22      Open
  16                   42.79      2.35     49.23      Open
  17                   44.25      2.43     52.40      Open
  18                    5.17      0.16      0.24      Open
  19                   49.42      0.68      2.20      Open
  20                   24.93      0.34      0.62      Open
  21                   13.12      0.40      1.36      Open
  22                  106.11      1.45      9.05      Open
  23                   39.15      1.21     10.29      Open
  24                   14.66      0.45      1.67      Open
  25                   42.46      1.31     11.95      Open
  26                 -233.78      3.20     39.06      Open
  27                 -209.29      2.87     31.82      Open
  28                 -258.27      3.54     46.98      Open
  29                 -429.72      5.89    120.61      Open
  30                  146.95      2.01     16.53      Open
  31                  122.46      3.78     85.00      Open
  32                   97.97      3.02     56.23      Open
  34                   35.29      1.09      8.49      Open
  35                   37.94      1.17      9.70      Open
  36                   13.45      0.41      1.42      Open
  37                    0.44      0.01      0.00      Open
  38                   38.19      1.18      9.82      Open
  39                   24.49      0.76      4.31      Open
  40                  -13.70      0.42      1.47      Open
  41                   24.49      0.76      4.31      Open
  1                   326.75      0.00   -277.73      Open Pump
  


  Page 16                                                 EPANET TPM802A
  Node Results at 7:00 Hrs:
  ----------------------------------------------------------------------
  Node                Demand      Head  Pressure   Quality
  ID                     LPS         m         m      mg/L
  ----------------------------------------------------------------------
  2                    32.66    267.32    236.82      0.00
  3                    32.66    257.37    239.07      0.00
  4                    32.66    254.97    236.67      0.00
  5                    32.66    255.02    224.52      0.00
  6                    32.66    240.73    202.63      0.00
  7                    32.66     65.34     16.54      0.00
  8                    32.66     64.00     30.50      0.00
  9                    32.66     64.30      9.40      0.00
  10                   32.66     61.76     22.16      0.00
  11                   32.66     63.39      6.99      0.00
  12                    0.00     62.61     -1.39      0.00
  13                    0.00     62.37     -1.63      0.13
  14                   32.66     62.37      1.37      0.91
  15                   32.66     63.53      5.63      0.91
  16                    9.09     45.71      0.01      0.13
  17                    0.00     45.43     -9.47      0.83
  18                   32.66     44.92     14.42      0.83
  19                    0.00     45.10     -0.60      0.15
  20                   32.66     59.83      8.03      0.91
  21                   32.66     57.04     11.34      0.91
  22                    0.00     57.04     -3.96      0.91
  23                   32.66     72.71      2.61      0.91
  24                   32.66     65.72      7.82      0.91
  25                   32.66     77.17      7.07      0.91
  27                   32.66     55.11     15.51      0.91
  28                   32.66     40.96      7.46      0.91
  29                   32.66     43.92     10.42      0.91
  30                   29.64     39.68      0.08      0.91
  31                   32.66     72.16     14.26      0.91
  32                   32.66     44.88     11.38      0.83
  33                   31.12     54.99      0.09      0.91
  34                    0.00     54.99     -2.91      0.91
  35                    0.00     41.55      8.05      0.91
  36                   32.66     40.29      6.79      0.91
  1                  -364.44      3.16      0.00      0.00 Reservoir
  26                 -489.16     86.52     14.89      0.91 Tank
  


  Page 17                                                 EPANET TPM802A
  Link Results at 7:00 Hrs:
  ----------------------------------------------------------------------
  Link                  Flow  VelocityUnit Headloss    Status
  ID                     LPS       m/s      m/km
  ----------------------------------------------------------------------
  2                   268.40      3.68     50.45      Open
  3                    63.38      1.95     25.10      Open
  4                    30.72      0.95      6.57      Open
  5                    -1.93      0.10      0.15      Open
  6                   233.81      3.20     39.07      Open
  7                   201.15      6.20    213.11      Open
  8                    65.31      0.90      3.68      Open
  9                   103.19      1.41      8.59      Open
  10                   32.66      1.01      7.35      Open
  11                   70.53      0.97      4.25      Open
  12                   37.87      0.52      1.34      Open
  13                   37.87      0.52      1.34      Open
  14                    1.50      0.02      0.00      Open
  15                 -127.59      1.75     12.73      Open
  16                   36.37      1.99     36.44      Open
  17                   38.03      2.08     39.58      Open
  18                   13.81      0.43      1.49      Open
  19                   51.84      0.71      2.40      Open
  20                   19.18      0.26      0.38      Open
  21                   13.47      0.42      1.43      Open
  22                   96.44      1.32      7.58      Open
  23                   31.90      0.98      7.04      Open
  24                   -0.76      0.02      0.01      Open
  25                   31.88      0.98      7.03      Open
  26                 -230.93      3.16     38.19      Open
  27                 -198.28      2.72     28.79      Open
  28                 -263.59      3.61     48.79      Open
  29                 -489.16      6.70    153.32      Open
  30                  192.92      2.64     27.37      Open
  31                  160.26      4.94    139.90      Open
  32                  127.60      3.93     91.74      Open
  34                   46.02      1.42     13.88      Open
  35                   31.12      0.96      6.72      Open
  36                    0.00      0.00      0.00      Open
  37                  -13.47      0.42      1.43      Open
  38                   48.93      1.51     15.54      Open
  39                   29.64      0.91      6.14      Open
  40                  -19.29      0.59      2.77      Open
  41                   32.66      1.01      7.35      Open
  1                   364.44      0.00   -264.16      Open Pump
  


  Page 18                                                 EPANET TPM802A
  Node Results at 8:00 Hrs:
  ----------------------------------------------------------------------
  Node                Demand      Head  Pressure   Quality
  ID                     LPS         m         m      mg/L
  ----------------------------------------------------------------------
  2                    24.49    280.19    249.69      0.00
  3                    24.49    272.40    254.10      0.00
  4                    24.49    269.95    251.65      0.00
  5                    24.49    269.50    239.00      0.00
  6                    24.49    255.55    217.45      0.00
  7                    24.49     71.72     22.92      0.00
  8                    24.49     70.93     37.43      0.00
  9                    24.49     70.04     15.14      0.00
  10                   24.49     69.61     30.01      0.00
  11                   24.49     68.04     11.64      0.00
  12                   24.49     64.65      0.65      0.00
  13                   22.59     64.09      0.09      0.00
  14                   24.49     64.09      3.09      0.91
  15                   24.49     64.91      7.01      0.91
  16                   24.49     46.05      0.35      0.00
  17                    0.00     46.03     -8.87      0.67
  18                   24.49     45.68     15.18      0.67
  19                    3.40     45.70      0.00      0.00
  20                   24.49     62.27     10.47      0.91
  21                   24.49     60.10     14.40      0.91
  22                    0.00     60.06     -0.94      0.91
  23                   24.49     71.61      1.51      0.91
  24                   24.49     66.56      8.66      0.91
  25                   24.49     74.77      4.67      0.91
  27                   24.49     61.38     21.78      0.91
  28                   24.49     52.71     19.21      0.91
  29                   24.49     54.52     21.02      0.91
  30                   24.49     51.71     12.11      0.91
  31                   24.49     71.74     13.84      0.91
  32                   24.49     45.64     12.14      0.39
  33                   24.49     57.96      3.06      0.91
  34                    7.01     57.91      0.01      0.47
  35                    0.00     53.03     19.53      0.91
  36                   24.49     52.32     18.82      0.91
  1                  -328.79      3.16      0.00      0.00 Reservoir
  26                 -389.98     80.91      9.28      0.91 Tank
  


  Page 19                                                 EPANET TPM802A
  Link Results at 8:00 Hrs:
  ----------------------------------------------------------------------
  Link                  Flow  VelocityUnit Headloss    Status
  ID                     LPS       m/s      m/km
  ----------------------------------------------------------------------
  2                   248.76      3.41     43.82      Open
  3                    55.54      1.71     19.65      Open
  4                    31.05      0.96      6.69      Open
  5                     6.55      0.35      1.48      Open
  6                   230.82      3.16     38.15      Open
  7                   206.33      6.36    223.38      Open
  8                    48.98      0.67      2.16      Open
  9                   132.85      1.82     13.72      Open
  10                   24.49      0.76      4.31      Open
  11                  108.36      1.49      9.40      Open
  12                   83.87      1.15      5.85      Open
  13                   59.38      0.81      3.09      Open
  14                   -1.17      0.02      0.00      Open
  15                 -106.15      1.45      9.05      Open
  16                   37.96      2.08     39.44      Open
  17                   38.91      2.13     41.30      Open
  18                    3.46      0.11      0.11      Open
  19                   42.37      0.58      1.65      Open
  20                   17.88      0.25      0.33      Open
  21                   10.01      0.31      0.82      Open
  22                   80.48      1.10      5.42      Open
  23                   27.85      0.86      5.47      Open
  24                    3.36      0.10      0.11      Open
  25                   28.14      0.87      5.58      Open
  26                 -194.05      2.66     27.67      Open
  27                 -169.55      2.32     21.55      Open
  28                 -218.54      3.00     34.48      Open
  29                 -389.98      5.34    100.77      Open
  30                  146.95      2.01     16.53      Open
  31                  122.46      3.78     85.00      Open
  32                   97.97      3.02     56.23      Open
  34                   35.29      1.09      8.49      Open
  35                   31.50      0.97      6.88      Open
  36                    7.01      0.22      0.43      Open
  37                   -6.61      0.20      0.38      Open
  38                   38.19      1.18      9.82      Open
  39                   24.49      0.76      4.31      Open
  40                  -13.70      0.42      1.47      Open
  41                   24.49      0.76      4.31      Open
  1                   328.79      0.00   -277.03      Open Pump
  


  Page 20                                                 EPANET TPM802A
  Node Results at 9:00 Hrs:
  ----------------------------------------------------------------------
  Node                Demand      Head  Pressure   Quality
  ID                     LPS         m         m      mg/L
  ----------------------------------------------------------------------
  2                    18.37    289.68    259.18      0.00
  3                    18.37    283.71    265.41      0.00
  4                    18.37    281.45    263.15      0.00
  5                    18.37    280.19    249.69      0.00
  6                    18.37    266.74    228.64      0.00
  7                    18.37     80.22     31.42      0.00
  8                    18.37     79.76     46.26      0.00
  9                    18.37     78.05     23.15      0.00
  10                   18.37     78.98     39.38      0.00
  11                   18.37     75.06     18.66      0.00
  12                   18.37     68.87      4.87      0.00
  13                   18.37     67.45      3.45      0.00
  14                   18.37     67.24      6.24      0.91
  15                   18.37     67.59      9.69      0.91
  16                   18.37     50.57      4.87      0.00
  17                    0.00     50.52     -4.38      0.84
  18                   18.37     50.16     19.66      0.84
  19                   18.37     50.05      4.35      0.00
  20                   18.37     64.98     13.18      0.91
  21                   18.37     61.84     16.14      0.91
  22                   17.17     61.09      0.09      0.91
  23                   18.37     71.23      1.13      0.91
  24                   18.37     68.47     10.57      0.91
  25                   18.37     72.97      2.87      0.91
  27                   18.37     65.11     25.51      0.91
  28                   18.37     60.02     26.52      0.91
  29                   18.37     61.08     27.58      0.91
  30                   18.37     59.43     19.83      0.91
  31                   18.37     71.19     13.29      0.91
  32                   18.37     50.10     16.60      0.61
  33                   18.37     58.31      3.41      0.91
  34                   18.32     58.00      0.10      0.91
  35                    0.00     60.20     26.70      0.91
  36                   18.37     59.79     26.29      0.91
  1                  -299.80      3.16      0.00      0.00 Reservoir
  26                 -286.77     76.44      4.81      0.91 Tank
  


  Page 21                                                 EPANET TPM802A
  Link Results at 9:00 Hrs:
  ----------------------------------------------------------------------
  Link                  Flow  VelocityUnit Headloss    Status
  ID                     LPS       m/s      m/km
  ----------------------------------------------------------------------
  2                   233.30      3.20     38.92      Open
  3                    48.13      1.48     15.07      Open
  4                    29.76      0.92      6.19      Open
  5                    11.39      0.62      4.11      Open
  6                   226.32      3.10     36.79      Open
  7                   207.95      6.41    226.64      Open
  8                    36.74      0.50      1.27      Open
  9                   152.84      2.09     17.78      Open
  10                   18.37      0.57      2.53      Open
  11                  134.48      1.84     14.03      Open
  12                  116.11      1.59     10.69      Open
  13                   97.74      1.34      7.77      Open
  14                   42.75      0.59      1.68      Open
  15                  -66.23      0.91      3.78      Open
  16                   36.62      2.01     36.91      Open
  17                   36.85      2.02     37.34      Open
  18                    5.83      0.18      0.30      Open
  19                   42.69      0.59      1.68      Open
  20                   24.32      0.33      0.59      Open
  21                   12.42      0.38      1.23      Open
  22                   90.61      1.24      6.75      Open
  23                   34.04      1.05      7.94      Open
  24                   15.67      0.48      1.89      Open
  25                   38.20      1.18      9.83      Open
  26                 -139.82      1.92     15.08      Open
  27                 -121.45      1.66     11.62      Open
  28                 -158.19      2.17     18.95      Open
  29                 -286.77      3.93     57.03      Open
  30                  110.21      1.51      9.70      Open
  31                   91.85      2.83     49.89      Open
  32                   73.48      2.27     33.00      Open
  34                   26.47      0.82      4.98      Open
  35                   36.69      1.13      9.12      Open
  36                   18.32      0.57      2.52      Open
  37                    5.95      0.18      0.31      Open
  38                   28.64      0.88      5.77      Open
  39                   18.37      0.57      2.53      Open
  40                  -10.27      0.32      0.86      Open
  41                   18.37      0.57      2.53      Open
  1                   299.80      0.00   -286.52      Open Pump
  


  Page 22                                                 EPANET TPM802A
  Node Results at 10:00 Hrs:
  ----------------------------------------------------------------------
  Node                Demand      Head  Pressure   Quality
  ID                     LPS         m         m      mg/L
  ----------------------------------------------------------------------
  2                    13.27    297.30    266.80      0.00
  3                    13.27    292.82    274.52      0.00
  4                    13.27    290.81    272.51      0.00
  5                    13.27    288.80    258.30      0.00
  6                    13.27    275.90    237.80      0.00
  7                    13.27     89.33     40.53      0.00
  8                    13.27     89.08     55.58      0.00
  9                    13.27     86.74     31.84      0.00
  10                   13.27     88.65     49.05      0.00
  11                   13.27     82.85     26.45      0.00
  12                   13.27     73.91      9.91      0.00
  13                   13.27     71.55      7.55      0.00
  14                   13.27     70.87      9.87      0.55
  15                   13.27     70.87     12.97      0.91
  16                   13.27     57.24     11.54      0.00
  17                   13.27     57.09      2.19      0.79
  18                   13.27     56.91     26.41      0.79
  19                   13.27     56.87     11.17      0.26
  20                   13.27     69.60     17.80      0.55
  21                   13.27     67.83     22.13      0.55
  22                   13.27     67.40      6.40      0.55
  23                   13.27     71.54      1.44      0.91
  24                   13.27     71.01     13.11      0.91
  25                   13.27     71.93      1.83      0.91
  27                   13.27     67.63     28.03      0.91
  28                   13.27     64.84     31.34      0.91
  29                   13.27     65.42     31.92      0.91
  30                   13.27     64.52     24.92      0.91
  31                   13.27     70.96     13.06      0.91
  32                   13.27     56.88     23.38      0.79
  33                   13.27     65.87     10.97      0.55
  34                   13.27     65.70      7.80      0.56
  35                    0.00     64.94     31.44      0.91
  36                   13.27     64.72     31.22      0.91
  1                  -274.32      3.16      0.00      0.00 Reservoir
  26                 -163.48     73.16      1.53      0.91 Tank
  


  Page 23                                                 EPANET TPM802A
  Link Results at 10:00 Hrs:
  ----------------------------------------------------------------------
  Link                  Flow  VelocityUnit Headloss    Status
  ID                     LPS       m/s      m/km
  ----------------------------------------------------------------------
  2                   219.84      3.01     34.86      Open
  3                    41.21      1.27     11.31      Open
  4                    27.94      0.86      5.51      Open
  5                    14.68      0.79      6.57      Open
  6                   221.25      3.03     35.27      Open
  7                   207.98      6.41    226.71      Open
  8                    26.53      0.36      0.69      Open
  9                   168.18      2.30     21.23      Open
  10                   13.27      0.41      1.39      Open
  11                  154.92      2.12     18.23      Open
  12                  141.65      1.94     15.45      Open
  13                  128.38      1.76     12.87      Open
  14                   81.61      1.12      5.56      Open
  15                    2.01      0.03      0.01      Open
  16                   33.50      1.84     31.30      Open
  17                   32.83      1.80     30.14      Open
  18                    9.92      0.31      0.81      Open
  19                   29.49      0.40      0.84      Open
  20                   16.22      0.22      0.28      Open
  21                   10.31      0.32      0.87      Open
  22                   66.33      0.91      3.79      Open
  23                   24.96      0.77      4.47      Open
  24                   11.70      0.36      1.10      Open
  25                   28.10      0.87      5.57      Open
  26                  -57.35      0.79      2.89      Open
  27                  -44.08      0.60      1.78      Open
  28                  -70.61      0.97      4.25      Open
  29                 -163.48      2.24     20.14      Open
  30                   79.60      1.09      5.31      Open
  31                   66.33      2.05     27.31      Open
  32                   53.07      1.64     18.06      Open
  34                   19.11      0.59      2.73      Open
  35                   26.53      0.82      5.00      Open
  36                   13.27      0.41      1.39      Open
  37                    2.95      0.09      0.09      Open
  38                   20.68      0.64      3.16      Open
  39                   13.27      0.41      1.39      Open
  40                   -7.42      0.23      0.47      Open
  41                   13.27      0.41      1.39      Open
  1                   274.32      0.00   -294.14      Open Pump
  


  Page 24                                                 EPANET TPM802A
  Node Results at 11:00 Hrs:
  ----------------------------------------------------------------------
  Node                Demand      Head  Pressure   Quality
  ID                     LPS         m         m      mg/L
  ----------------------------------------------------------------------
  2                    18.37    287.08    256.58      0.00
  3                    18.37    280.89    262.59      0.00
  4                    18.37    278.49    260.19      0.00
  5                    18.37    277.04    246.54      0.00
  6                    18.37    262.66    224.56      0.00
  7                    18.37     62.27     13.47      0.00
  8                    18.37     61.80     28.30      0.00
  9                    18.37     59.88      4.98      0.00
  10                   18.37     61.03     21.43      0.00
  11                   18.37     56.54      0.14      0.00
  12                    0.00     49.51    -14.49      0.00
  13                    0.00     47.30    -16.70      0.00
  14                    0.00     46.23    -14.77      0.00
  15                    0.00     45.65    -12.25      0.00
  16                    0.00     41.84     -3.86      0.05
  17                    0.00     41.65    -13.25      0.00
  18                   18.37     41.49     10.99      0.91
  19                    0.00     41.57     -4.13      0.06
  20                    0.00     46.12     -5.68      0.03
  21                   17.15     45.79      0.09      0.00
  22                    0.00     45.95    -15.05      0.00
  23                    0.00     44.55    -25.55      0.00
  24                    0.00     45.33    -12.57      0.00
  25                    0.00     44.17    -25.93      0.00
  27                   15.33     39.67      0.07      0.04
  28                   18.37     36.61      3.11      0.55
  29                   18.37     37.31      3.81      0.08
  30                    0.00     37.02     -2.58      0.85
  31                    0.00     43.39    -14.51      0.00
  32                   18.37     41.48      7.98      0.10
  33                    0.00     45.95     -8.95      0.00
  34                    0.00     45.95    -11.95      0.00
  35                    0.00     37.02      3.52      0.15
  36                   18.37     36.38      2.88      0.60
  1                  -308.01      3.16      0.00      0.00 Reservoir
  26                    0.00     71.93      0.30      0.91 Tank
  


  Page 25                                                 EPANET TPM802A
  Link Results at 11:00 Hrs:
  ----------------------------------------------------------------------
  Link                  Flow  VelocityUnit Headloss    Status
  ID                     LPS       m/s      m/km
  ----------------------------------------------------------------------
  2                   240.57      3.30     41.19      Open
  3                    49.07      1.51     15.63      Open
  4                    30.70      0.95      6.56      Open
  5                    12.34      0.67      4.76      Open
  6                   234.54      3.21     39.30      Open
  7                   216.17      6.67    243.51      Open
  8                    36.74      0.50      1.27      Open
  9                   161.06      2.21     19.59      Open
  10                   18.37      0.57      2.53      Open
  11                  142.69      1.96     15.66      Open
  12                  124.32      1.70     12.13      Open
  13                  124.32      1.70     12.13      Open
  14                  104.41      1.43      8.78      Open
  15                   87.27      1.20      6.30      Open
  16                   19.91      1.09     11.94      Open
  17                   16.83      0.92      8.74      Open
  18                   11.26      0.35      1.02      Open
  19                   28.09      0.38      0.77      Open
  20                    9.72      0.13      0.11      Open
  21                    8.65      0.27      0.63      Open
  22                   17.15      0.23      0.31      Open
  23                   10.16      0.31      0.85      Open
  24                   -6.99      0.22      0.42      Open
  25                    6.99      0.22      0.42      Open
  26                   70.44      0.97      4.24      Open
  27                   70.44      0.97      4.24      Open
  28                   70.44      0.97      4.24      Open
  29                    0.00      0.00      0.00    Closed
  30                   70.44      0.97      4.24      Open
  31                   70.44      2.17     30.52      Open
  32                   55.11      1.70     19.37      Open
  34                   21.02      0.65      3.25      Open
  35                    0.00      0.00      0.00      Open
  36                    0.00      0.00      0.00      Open
  37                   -8.65      0.27      0.63      Open
  38                   15.71      0.48      1.90      Open
  39                    0.00      0.00      0.00      Open
  40                  -15.71      0.48      1.90      Open
  41                   18.37      0.57      2.53      Open
  1                   308.01      0.00   -283.92      Open Pump
  


  Page 26                                                 EPANET TPM802A
  Node Results at 12:00 Hrs:
  ----------------------------------------------------------------------
  Node                Demand      Head  Pressure   Quality
  ID                     LPS         m         m      mg/L
  ----------------------------------------------------------------------
  2                    16.33   -377.83   -408.33      0.00
  3                    16.33   -197.66   -215.96      0.00
  4                 -1886.82     10.05     -8.25      0.00
  5                    16.33  -1437.14  -1467.64      0.00
  6                     0.00  -3796.21  -3834.31      0.00
  7                    -0.04 -39815.96 -39864.76      0.00
  8                 38391.194.130613E104.130613E10      0.00
  9                    -0.03 -36358.27 -36413.18      0.00
  10                34273.143.68911E103.68911E10      0.00
  11              -5464669.00 -31121.13 -31177.53      0.00
  12                   -1.28-1380468.00-1380532.00      0.00
  13                   -1.66-1789269.00-1789333.00      0.00
  14                   -2.19-2353725.00-2353786.00      0.00
  15                   15.65-730586.40-730644.30      0.00
  16                   -0.08 -83920.73 -83966.43      0.00
  17                   -0.02 -24270.04 -24324.94      0.00
  18              -351736.70  -4277.97  -4308.47      0.00
  19                   -0.02 -26699.21 -26744.91      0.00
  20                  153.741.479038E081.479038E08      0.00
  21              2.750706E07  28765.36  28719.65      0.00
  22                   68.907.416822E077.416817E07      0.00
  23                    0.00     62.25     -7.85      0.00
  24              -2.169494E07     57.88     -0.02      0.00
  25                    0.00     64.44     -5.66      0.00
  27                   65.18     40.30      0.70      0.00
  28                   16.33     34.69      1.19      0.00
  29                   16.33     36.05      2.55      0.00
  30                    0.00     35.48     -4.12      0.42
  31                   61.35     57.90      0.00      0.00
  32                   -0.01  -6262.96  -6296.46      0.00
  33                77346.168.323669E108.323669E10      0.00
  34              -131290.00-1.413186E11-1.413186E11      0.00
  35                    0.00     35.48      1.98      0.00
  36                   66.57     33.91      0.41      0.00
  1                -12620.97      3.16      0.00      0.00 Reservoir
  26                 -443.34     71.93      0.30      0.91 Tank
  


  Page 27                                                 EPANET TPM802A
  Link Results at 12:00 Hrs:
  ----------------------------------------------------------------------
  Link                  Flow  VelocityUnit Headloss    Status
  ID                     LPS       m/s      m/km
  ----------------------------------------------------------------------
  2                 13254.60    181.65   4344.31      Open
  3                  -649.96     20.04    454.69      Open
  4                  -666.29     20.55    567.89      Open
  5                  1220.53     66.04   4748.01      Open
  6                 14458.80    198.16   6449.77      Open
  7                 14458.81    445.85  43768.53      Open
  8                 72664.34    995.861.129324E11      Open
  9                -58205.49    797.70  28360.25      Open
  10                34273.14   1056.85 1.4485E10      Open
  11               -58205.46    797.70  24546.06      Open
  12              5406463.00  74095.382329995.00      Open
  13              5406465.00  74095.392235356.00      Open
  14              5652563.00  77468.164629723.00      Open
  15              -2.180078E07 298778.801.775086E07      Open
  16              -246097.10  13491.013729984.00      Open
  17              -105639.60   5791.151544874.00      Open
  18              -190614.90   5877.83 326173.90      Open
  19              -296254.50   4060.16  93701.12      Open
  20                55482.16    760.38  18606.97      Open
  21               -55482.19   1710.86 134096.20      Open
  22              2.745334E07 376247.004.481554E08      Open
  23              1.832049E07 564933.603.731956E08      Open
  24              -9186573.00 283278.701.871075E08      Open
  25              9132698.00 281617.401.860882E08      Open
  26                 -217.59      2.98     23.94      Open
  27              -2.169515E07 297331.309588508.00      Open
  28                 -217.59      2.98     23.94      Open
  29                 -443.34      6.08    122.80      Open
  30                  225.75      3.09     35.78      Open
  31                  164.41      5.07    144.37      Open
  32                   99.23      3.06     34.84      Open
  34                   50.99      1.57      6.38      Open
  35               -53943.79   1663.422.728429E11      Open
  36              -131290.00   4048.481.841825E12      Open
  37                55482.17   1710.86 134096.20      Open
  38                   31.90      0.98      3.72      Open
  39                    0.00      0.00      0.00      Open
  40                  -31.90      0.98      3.72      Open
  41                   66.57      2.05      8.53      Open
  1                 12620.97      0.00    380.99      Open Pump
  


  Page 28                                                 EPANET TPM802A
  Node Results at 13:00 Hrs:
  ----------------------------------------------------------------------
  Node                Demand      Head  Pressure   Quality
  ID                     LPS         m         m      mg/L
  ----------------------------------------------------------------------
  2                    15.31    292.27    261.77      0.00
  3                    15.31    287.04    268.74      0.00
  4                    15.31    284.81    266.51      0.00
  5                    15.31    282.93    252.43      0.00
  6                    15.31    269.05    230.95      0.00
  7                    15.31     70.90     22.10      0.00
  8                    15.31     70.57     37.07      0.00
  9                    15.31     68.29     13.39      0.00
  10                   15.31     70.02     30.42      0.00
  11                   15.31     64.46      8.06      0.00
  12                    0.00     55.90     -8.10      0.00
  13                    0.00     53.20    -10.80      0.00
  14                    0.00     51.92     -9.08      0.00
  15                    0.00     51.23     -6.67      0.00
  16                   12.88     45.77      0.07      0.00
  17                    0.00     45.73     -9.17      0.00
  18                   15.31     45.60     15.10      0.00
  19                    0.00     45.64     -0.06      0.00
  20                    2.98     51.80      0.00      0.00
  21                   15.31     51.53      5.83      0.00
  22                    0.00     51.67     -9.33      0.00
  23                    0.00     49.95    -20.15      0.91
  24                    0.00     50.85     -7.05      0.00
  25                    0.00     49.50    -20.60      0.91
  27                   15.31     44.25      4.65      0.91
  28                   15.31     40.62      7.12      0.91
  29                   15.31     41.38      7.88      0.91
  30                   15.31     40.20      0.60      0.43
  31                    0.00     48.59     -9.31      0.91
  32                   15.31     45.59     12.09      0.00
  33                    0.00     51.67     -3.23      0.00
  34                    0.00     51.67     -6.23      0.00
  35                    0.00     40.75      7.25      0.91
  36                   15.31     40.46      6.96      0.91
  1                  -291.40      3.16      0.00      0.00 Reservoir
  26                    0.00     71.93      0.30      0.91 Tank
  


  Page 29                                                 EPANET TPM802A
  Link Results at 13:00 Hrs:
  ----------------------------------------------------------------------
  Link                  Flow  VelocityUnit Headloss    Status
  ID                     LPS       m/s      m/km
  ----------------------------------------------------------------------
  2                   231.29      3.17     38.30      Open
  3                    44.80      1.38     13.20      Open
  4                    29.49      0.91      6.09      Open
  5                    14.18      0.77      6.17      Open
  6                   230.17      3.15     37.95      Open
  7                   214.86      6.63    240.78      Open
  8                    30.62      0.42      0.91      Open
  9                   168.94      2.32     21.40      Open
  10                   15.31      0.47      1.81      Open
  11                  153.63      2.11     17.95      Open
  12                  138.32      1.90     14.78      Open
  13                  138.32      1.90     14.78      Open
  14                  114.81      1.57     10.47      Open
  15                   96.52      1.32      7.59      Open
  16                   23.51      1.29     16.24      Open
  17                   19.98      1.10     12.02      Open
  18                    4.74      0.15      0.21      Open
  19                   24.72      0.34      0.61      Open
  20                    9.42      0.13      0.10      Open
  21                    5.89      0.18      0.31      Open
  22                   18.29      0.25      0.35      Open
  23                    9.07      0.28      0.69      Open
  24                   -6.24      0.19      0.34      Open
  25                    6.24      0.19      0.34      Open
  26                   76.54      1.05      4.94      Open
  27                   76.54      1.05      4.94      Open
  28                   76.54      1.05      4.94      Open
  29                    0.00      0.00      0.00    Closed
  30                   76.54      1.05      4.94      Open
  31                   76.54      2.36     35.60      Open
  32                   61.23      1.89     23.55      Open
  34                   22.06      0.68      3.55      Open
  35                    0.00      0.00      0.00      Open
  36                    0.00      0.00      0.00      Open
  37                   -5.89      0.18      0.31      Open
  38                   23.87      0.74      4.11      Open
  39                   15.31      0.47      1.81      Open
  40                   -8.56      0.26      0.62      Open
  41                   15.31      0.47      1.81      Open
  1                   291.40      0.00   -289.11      Open Pump
  


  Page 30                                                 EPANET TPM802A
  Node Results at 14:00 Hrs:
  ----------------------------------------------------------------------
  Node                Demand      Head  Pressure   Quality
  ID                     LPS         m         m      mg/L
  ----------------------------------------------------------------------
  2                    14.29    293.75    263.25      0.00
  3                    14.29    288.81    270.51      0.00
  4                    14.29    286.64    268.34      0.00
  5                    14.29    284.60    254.10      0.00
  6                    14.29    270.81    232.71      0.00
  7                    14.29     72.33     23.53      0.00
[...]
  13                    0.00     46.87    -17.13      0.00
  14                    0.00     45.89    -15.11      0.00
  15                    0.00     45.28    -12.62      0.00
  16                    0.00     39.37     -6.33      0.00
  17                    0.00     39.12    -15.78      0.00
  18                   22.45     38.87      8.37      0.00
  19                    0.00     38.99     -6.71      0.00
  20                    0.00     45.85     -5.95      0.00
  21                   10.11     45.72      0.02      0.00
  22                    0.00     45.78    -15.22      0.00
  23                    0.00     44.24    -25.86      0.00
  24                    0.00     44.97    -12.93      0.00
  25                    0.00     43.87    -26.23      0.00
  27                    1.14     39.60      0.00      0.00
  28                   22.45     35.17      1.67      0.00
  29                   22.45     36.18      2.68      0.00
  30                    0.00     35.76     -3.84      0.00
  31                    0.00     43.13    -14.77      0.00
  32                   22.45     38.86      5.36      0.00
  33                    0.00     45.78     -9.12      0.00
  34                    0.00     45.78    -12.12      0.00
  35                    0.00     35.76      2.26      0.00
  36                   22.45     34.83      1.33      0.00
  1                  -325.56      3.16      0.00      0.00 Reservoir
  26                    0.00     71.93      0.30      0.00 Tank
  


  Page 237                                                EPANET TPM802A
  Link Results at 117:00 Hrs:
  ----------------------------------------------------------------------
  Link                  Flow  VelocityUnit Headloss    Status
  ID                     LPS       m/s      m/km
  ----------------------------------------------------------------------
  2                   249.15      3.41     43.95      Open
  3                    53.96      1.66     18.63      Open
  4                    31.51      0.97      6.88      Open
  5                     9.06      0.49      2.69      Open
  6                   235.76      3.23     39.68      Open
  7                   213.31      6.58    237.57      Open
  8                    44.90      0.62      1.84      Open
  9                   145.95      2.00     16.33      Open
  10                   22.45      0.69      3.67      Open
  11                  123.50      1.69     11.98      Open
  12                  123.50      1.69     11.98      Open
  13                  123.50      1.69     11.98      Open
  14                   99.86      1.37      8.08      Open
  15                   89.75      1.23      6.63      Open
  16                   23.64      1.30     16.41      Open
  17                   21.26      1.17     13.48      Open
  18                   13.25      0.41      1.38      Open
  19                   34.51      0.47      1.13      Open
  20                   12.06      0.17      0.16      Open
  21                   10.40      0.32      0.88      Open
  22                   10.11      0.14      0.12      Open
  23                    5.99      0.18      0.32      Open
  24                   -4.12      0.13      0.16      Open
  25                    4.12      0.13      0.16      Open
  26                   68.49      0.94      4.02      Open
  27                   68.49      0.94      4.02      Open
  28                   68.49      0.94      4.02      Open
  29                    0.00      0.00      0.00    Closed
  30                   68.49      0.94      4.02      Open
  31                   68.49      2.11     28.98      Open
  32                   67.35      2.08     28.09      Open
  34                   25.70      0.79      4.72      Open
  35                    0.00      0.00      0.00      Open
  36                    0.00      0.00      0.00      Open
  37                  -10.40      0.32      0.88      Open
  38                   19.21      0.59      2.75      Open
  39                    0.00      0.00      0.00      Open
  40                  -19.21      0.59      2.75      Open
  41                   22.45      0.69      3.67      Open
  1                   325.56      0.00   -278.13      Open Pump
  


  Page 238                                                EPANET TPM802A
  Node Results at 118:00 Hrs:
  ----------------------------------------------------------------------
  Node                Demand      Head  Pressure   Quality
  ID                     LPS         m         m      mg/L
  ----------------------------------------------------------------------
  2                    14.29    293.75    263.25      0.00
  3                    14.29    288.81    270.51      0.00
  4                    14.29    286.64    268.34      0.00
  5                    14.29    284.60    254.10      0.00
  6                    14.29    270.81    232.71      0.00
  7                    14.29     72.33     23.53      0.00
  8                    14.29     72.04     38.54      0.00
  9                    14.29     69.62     14.72      0.00
  10                   14.29     71.55     31.95      0.00
  11                   14.29     65.60      9.20      0.00
  12                    0.00     56.42     -7.58      0.00
  13                    0.00     53.52    -10.48      0.00
  14                    0.00     52.14     -8.86      0.00
  15                    0.00     51.51     -6.39      0.00
  16                   14.29     45.83      0.13      0.00
  17                    0.00     45.81     -9.09      0.00
  18                   14.29     45.69     15.19      0.00
  19                    1.48     45.70      0.00      0.00
  20                   13.55     51.89      0.09      0.00
  21                   14.29     51.65      5.95      0.00
  22                    0.00     51.77     -9.23      0.00
  23                    0.00     50.39    -19.71      0.00
  24                    0.00     51.18     -6.72      0.00
  25                    0.00     49.99    -20.11      0.00
  27                   14.29     45.37      5.77      0.00
  28                   14.29     42.18      8.68      0.00
  29                   14.29     42.85      9.35      0.00
  30                   14.29     41.81      2.21      0.00
  31                    0.00     49.19     -8.71      0.00
  32                   14.29     45.67     12.17      0.00
  33                    0.00     51.77     -3.13      0.00
  34                    0.00     51.77     -6.13      0.00
  35                    0.00     42.30      8.80      0.00
  36                   14.29     42.03      8.53      0.00
  1                  -286.49      3.16      0.00      0.00 Reservoir
  26                    0.00     71.93      0.30      0.00 Tank
  


  Page 239                                                EPANET TPM802A
  Link Results at 118:00 Hrs:
  ----------------------------------------------------------------------
  Link                  Flow  VelocityUnit Headloss    Status
  ID                     LPS       m/s      m/km
  ----------------------------------------------------------------------
  2                   228.79      3.14     37.53      Open
  3                    43.41      1.34     12.45      Open
  4                    29.12      0.90      5.95      Open
  5                    14.83      0.80      6.70      Open
  6                   229.34      3.14     37.70      Open
  7                   215.05      6.63    241.18      Open
  8                    28.57      0.39      0.80      Open
  9                   172.19      2.36     22.17      Open
  10                   14.29      0.44      1.59      Open
  11                  157.90      2.16     18.89      Open
  12                  143.61      1.97     15.84      Open
  13                  143.61      1.97     15.84      Open
  14                  119.66      1.64     11.30      Open
  15                   91.82      1.26      6.92      Open
  16                   23.96      1.31     16.82      Open
  17                   20.39      1.12     12.47      Open
  18                    3.75      0.12      0.13      Open
  19                   24.14      0.33      0.58      Open
  20                    9.85      0.13      0.11      Open
  21                    5.92      0.18      0.31      Open
  22                   27.84      0.38      0.76      Open
  23                    8.46      0.26      0.60      Open
  24                   -5.82      0.18      0.30      Open
  25                    5.82      0.18      0.30      Open
  26                   71.43      0.98      4.35      Open
  27                   71.43      0.98      4.35      Open
  28                   71.43      0.98      4.35      Open
  29                    0.00      0.00      0.00    Closed
  30                   71.44      0.98      4.35      Open
  31                   71.44      2.20     31.33      Open
  32                   57.15      1.76     20.72      Open
  34                   20.59      0.63      3.13      Open
  35                    0.00      0.00      0.00      Open
  36                    0.00      0.00      0.00      Open
  37                   -4.44      0.14      0.18      Open
  38                   22.28      0.69      3.62      Open
  39                   14.29      0.44      1.59      Open
  40                   -7.99      0.25      0.54      Open
  41                   14.29      0.44      1.59      Open
  1                   286.49      0.00   -290.59      Open Pump
  


  Page 240                                                EPANET TPM802A
  Node Results at 119:00 Hrs:
  ----------------------------------------------------------------------
  Node                Demand      Head  Pressure   Quality
  ID                     LPS         m         m      mg/L
  ----------------------------------------------------------------------
  2                    10.21    300.19    269.69      0.00
  3                    10.21    296.46    278.16      0.00
  4                    10.21    294.55    276.25      0.00
  5                    10.21    291.94    261.44      0.00
  6                    10.21    278.82    240.72      0.00
  7                    10.21     83.88     35.08      0.00
  8                    10.21     83.72     50.22      0.00
  9                    10.21     80.87     25.97      0.00
  10                   10.21     83.46     43.86      0.00
  11                   10.21     76.14     19.74      0.00
  12                   10.20     64.68      0.68      0.00
  13                    0.00     61.47     -2.53      0.00
  14                    0.00     59.88     -1.12      0.00
  15                   10.21     59.26      1.36      0.00
  16                   10.21     54.63      8.93      0.00
  17                    0.00     54.58     -0.32      0.00
  18                   10.21     54.47     23.97      0.00
  19                   10.21     54.43      8.73      0.00
  20                   10.21     59.42      7.62      0.00
  21                   10.21     58.82     13.12      0.00
  22                    0.00     58.77     -2.23      0.00
  23                    0.00     58.56    -11.54      0.00
  24                   10.21     59.01      1.11      0.00
  25                    0.00     58.34    -11.76      0.00
  27                   10.21     55.85     16.25      0.00
  28                   10.21     54.14     20.64      0.00
  29                   10.21     54.50     21.00      0.00
  30                   10.21     53.94     14.34      0.00
  31                    1.00     57.90      0.00      0.00
  32                   10.21     54.45     20.95      0.00
  33                   10.21     58.02      3.12      0.00
  34                    7.88     57.96      0.06      0.00
  35                    0.00     54.20     20.70      0.00
  36                   10.21     54.06     20.56      0.00
  1                  -264.00      3.16      0.00      0.00 Reservoir
  26                    0.00     71.93      0.30      0.00 Tank
  


  Page 241                                                EPANET TPM802A
  Link Results at 119:00 Hrs:
  ----------------------------------------------------------------------
  Link                  Flow  VelocityUnit Headloss    Status
  ID                     LPS       m/s      m/km
  ----------------------------------------------------------------------
  2                   216.44      2.97     33.87      Open
  3                    37.35      1.15      9.43      Open
  4                    27.15      0.84      5.22      Open
  5                    16.94      0.92      8.57      Open
  6                   223.18      3.06     35.85      Open
  7                   212.97      6.57    236.89      Open
  8                    20.41      0.28      0.43      Open
  9                   182.36      2.50     24.66      Open
  10                   10.21      0.31      0.85      Open
  11                  172.15      2.36     22.16      Open
  12                  161.95      2.22     19.79      Open
  13                  151.74      2.08     17.55      Open
  14                  129.25      1.77     13.03      Open
  15                   90.75      1.24      6.77      Open
  16                   22.50      1.23     14.97      Open
  17                   18.32      1.00     10.23      Open
  18                    5.05      0.16      0.23      Open
  19                   23.37      0.32      0.55      Open
  20                   13.17      0.18      0.19      Open
  21                    7.24      0.22      0.45      Open
  22                   38.49      0.53      1.38      Open
  23                   13.84      0.43      1.50      Open
  24                    3.63      0.11      0.13      Open
  25                   14.45      0.45      1.62      Open
  26                   52.02      0.71      2.42      Open
  27                   62.23      0.85      3.37      Open
  28                   52.02      0.71      2.42      Open
  29                    0.00      0.00      0.00    Closed
  30                   52.02      0.71      2.42      Open
  31                   51.03      1.57     16.80      Open
  32                   40.82      1.26     11.11      Open
  34                   14.70      0.45      1.68      Open
  35                   18.08      0.56      2.46      Open
  36                    7.88      0.24      0.53      Open
  37                    2.96      0.09      0.09      Open
  38                   15.91      0.49      1.94      Open
  39                   10.21      0.31      0.85      Open
  40                   -5.71      0.18      0.29      Open
  41                   10.21      0.31      0.85      Open
  1                   264.00      0.00   -297.03      Open Pump
  


  Page 242                                                EPANET TPM802A
  Node Results at 120:00 Hrs:
  ----------------------------------------------------------------------
  Node                Demand      Head  Pressure   Quality
  ID                     LPS         m         m      mg/L
  ----------------------------------------------------------------------
  2                     8.16    303.15    272.65      0.00
  3                     8.16    299.97    281.67      0.00
  4                     8.16    298.20    279.90      0.00
  5                     8.16    295.30    264.80      0.00
  6                     8.16    282.49    244.39      0.00
  7                     8.16     88.86     40.06      0.00
  8                     8.16     88.76     55.26      0.00
  9                     8.16     85.69     30.79      0.00
  10                    8.16     88.58     48.98      0.00
  11                    8.16     80.58     24.18      0.00
  12                    8.16     67.85      3.85      0.00
  13                    8.16     64.17      0.17      0.00
  14                    8.16     62.51      1.51      0.00
  15                    8.16     61.97      4.07      0.00
  16                    8.16     57.36     11.66      0.00
  17                    8.16     57.27      2.37      0.00
  18                    8.16     57.20     26.70      0.00
  19                    8.16     57.19     11.49      0.00
  20                    8.16     61.99     10.19      0.00
  21                    8.16     61.27     15.57      0.00
  22                    8.10     61.10      0.10      0.00
  23                    0.00     61.36     -8.74      0.00
  24                    8.16     61.76      3.86      0.00
  25                    0.00     61.16     -8.94      0.00
  27                    8.16     59.41     19.81      0.00
  28                    8.16     58.28     24.78      0.00
  29                    8.16     58.52     25.02      0.00
  30                    8.16     58.15     18.55      0.00
  31                    8.16     60.77      2.87      0.00
  32                    8.16     57.19     23.69      0.00
  33                    8.16     60.48      5.58      0.00
  34                    8.16     60.41      2.51      0.00
  35                    0.00     58.32     24.82      0.00
  36                    8.16     58.23     24.73      0.00
  1                  -253.02      3.16      0.00      0.00 Reservoir
  26                    0.00     71.93      0.30      0.00 Tank
  


  Page 243                                                EPANET TPM802A
  Link Results at 120:00 Hrs:
  ----------------------------------------------------------------------
  Link                  Flow  VelocityUnit Headloss    Status
  ID                     LPS       m/s      m/km
  ----------------------------------------------------------------------
  2                   210.61      2.89     32.20      Open
  3                    34.24      1.06      8.03      Open
  4                    26.08      0.80      4.85      Open
  5                    17.91      0.97      9.51      Open
  6                   220.36      3.02     35.01      Open
  7                   212.20      6.54    235.29      Open
  8                    16.33      0.22      0.28      Open
  9                   187.71      2.57     26.01      Open
  10                    8.16      0.25      0.56      Open
  11                  179.54      2.46     23.96      Open
  12                  171.38      2.35     21.98      Open
  13                  163.21      2.24     20.08      Open
  14                  132.60      1.82     13.67      Open
  15                   83.69      1.15      5.83      Open
  16                   22.45      1.23     14.91      Open
  17                   18.37      1.01     10.29      Open
  18                    7.48      0.23      0.48      Open
  19                   17.69      0.24      0.33      Open
  20                    9.52      0.13      0.10      Open
  21                    6.80      0.21      0.40      Open
  22                   40.75      0.56      1.54      Open
  23                   15.33      0.47      1.81      Open
  24                    7.17      0.22      0.44      Open
  25                   17.26      0.53      2.26      Open
  26                   48.98      0.67      2.16      Open
  27                   57.15      0.78      2.88      Open
  28                   48.98      0.67      2.16      Open
  29                    0.00      0.00      0.00    Closed
  30                   48.98      0.67      2.16      Open
  31                   40.82      1.26     11.11      Open
  32                   32.66      1.01      7.35      Open
  34                   11.76      0.36      1.11      Open
  35                   16.33      0.50      2.04      Open
  36                    8.16      0.25      0.56      Open
  37                    1.36      0.04      0.02      Open
  38                   12.73      0.39      1.28      Open
  39                    8.16      0.25      0.56      Open
  40                   -4.57      0.14      0.19      Open
  41                    8.16      0.25      0.56      Open
  1                   253.02      0.00   -299.99      Open Pump
  
